   36
jmolscript: load "" {1 1 1} spacegroup "x,y,z" unitcell [{     16.016204     0.000000     0.000000 }, {      0.000000    12.012153     0.000000 }, {      0.000000     0.000000    16.016204 }]
C     -2.310474    -4.295404    -0.635008    -0.530573
C     -1.331324    -3.653253     0.324961     0.638834
H      4.505652    -0.178788    -0.188089     0.105599
H      3.534717    -0.495970    -1.644080     0.127339
H      3.227931     0.960229    -0.685306     0.103138
H     -2.319578    -3.827009    -1.618826     0.135944
H     -2.047884    -5.348821    -0.739731     0.237967
H     -3.305831    -4.246454    -0.193760     0.151208
N     -0.521690    -2.706501    -0.208832    -0.482275
O      1.135106    -1.183150    -1.562954    -0.522418
O     -1.272763    -3.973973     1.497891    -0.568287
C      0.468883    -2.025819     0.586039     0.043614
C      3.515171    -0.094054    -0.632398    -0.183827
H      2.740677    -1.020599     1.134109     0.279139
C      1.416389    -1.325570    -0.389360     0.524631
N     -2.530450     1.185280    -0.260292    -0.304774
C      0.864389     1.944564     0.521055    -0.284670
N      2.567749    -0.864783     0.154535    -0.403747
H     -0.564239    -2.437699    -1.182308     0.295346
C     -0.181237    -1.011436     1.563234    -0.216506
H      0.228851     4.806350    -1.197325     0.146170
H      1.017214    -2.765519     1.178876     0.078113
C     -0.922894     0.074754     0.853785    -0.045641
H     -0.848313    -1.589661     2.204720     0.121686
H      0.592699    -0.580440     2.205967     0.089683
C     -0.389443     1.328251     0.396400    -0.008062
C     -1.421570     1.998592    -0.298779     0.160181
H     -2.961907    -0.736131     0.576820     0.115962
C     -2.222632     0.036830     0.430347    -0.046173
H     -2.032484     3.756619    -1.411277     0.121669
F      2.235469     3.774874     0.014640    -0.188640
C      0.013616     3.838734    -0.763413    -0.235493
C      1.029629     3.173003    -0.068521     0.291827
H     -3.427524     1.402844    -0.658027     0.294973
C     -1.233364     3.253843    -0.880084    -0.167276
H      1.686138     1.484542     1.054794     0.125340
 
 Chargemol version 3.5 September 26, 2017.
See ddec.sourceforge.net for latest version.
 
Computational parameters:
Number of radial integration shells =    100
Cutoff radius (pm) =    500
Error in the integrated total number of electrons before renormalization (e) =    6.1999E-02
Charge convergence tolerance =    1.0000E-05
Minimum radius for electron cloud penetration fitting (pm) =    200
Minimum decay exponent for electron density of buried atom tails =   1.7500
Maximum decay exponent for electron density of buried atom tails =  2.5000
Number of iterations to convergence =      7
 
The following XYZ coordinates are in angstroms. The atomic dipoles and quadrupoles are in atomic units.
atom number, atomic symbol, x, y, z, net_charge, dipole_x, dipole_y, dipole_z, dipole_mag, Qxy, Qxz, Qyz,Q(x^2-y^2), Q(3z^2 - R^2), three eigenvalues of traceless quadrupole moment tensor
    1 C     -2.310474    -4.295404    -0.635008    -0.530573     0.008462     0.012710     0.024444     0.028821     0.022754    -0.002852    -0.028281    -0.069918    -0.026650    -0.038642    -0.019242     0.057884
    2 C     -1.331324    -3.653253     0.324961     0.638834    -0.000047    -0.003290     0.005619     0.006511    -0.020083     0.007264     0.029678     0.014465    -0.111717    -0.054266     0.012277     0.041989
    3 H      4.505652    -0.178788    -0.188089     0.105599     0.032392    -0.005116     0.018228     0.037519     0.004705     0.003103    -0.012973     0.019985     0.001236    -0.019976     0.009121     0.010855
    4 H      3.534717    -0.495970    -1.644080     0.127339    -0.007490    -0.016702    -0.038110     0.042278     0.009553    -0.009447     0.002796    -0.014846     0.044938    -0.022137     0.004422     0.017715
    5 H      3.227931     0.960229    -0.685306     0.103138    -0.014355     0.036166    -0.003900     0.039106     0.000481    -0.008601    -0.005232    -0.018413    -0.019207    -0.015241     0.001074     0.014168
    6 H     -2.319578    -3.827009    -1.618826     0.135944     0.004739     0.015224    -0.016387     0.022864     0.012097     0.000710    -0.011928    -0.000794     0.030083    -0.019932     0.001797     0.018135
    7 H     -2.047884    -5.348821    -0.739731     0.237967     0.001471    -0.064628     0.005248     0.064858     0.001636     0.002282     0.000675    -0.075625    -0.080759    -0.028255    -0.023059     0.051315
    8 H     -3.305831    -4.246454    -0.193760     0.151208    -0.016550     0.001657     0.016651     0.023535     0.000727    -0.007908     0.003873     0.018549     0.002025    -0.011525    -0.002288     0.013813
    9 N     -0.521690    -2.706501    -0.208832    -0.482275     0.075525     0.047343     0.087300     0.124767     0.120896     0.048910     0.005498     0.005249     0.216241    -0.161004     0.041771     0.119234
   10 O      1.135106    -1.183150    -1.562954    -0.522418     0.005870     0.003185     0.027245     0.028051    -0.055896     0.033787     0.016351    -0.068455     0.127822    -0.096911     0.043715     0.053197
   11 O     -1.272763    -3.973973     1.497891    -0.568287     0.004006     0.001855    -0.014234     0.014903    -0.068097    -0.020332    -0.022819    -0.032704     0.140622    -0.099659     0.043690     0.055969
   12 C      0.468883    -2.025819     0.586039     0.043614    -0.129611    -0.021744    -0.011659     0.131939     0.011523     0.026556     0.017706    -0.013746     0.002654    -0.030355    -0.007367     0.037722
   13 C      3.515171    -0.094054    -0.632398    -0.183827    -0.096780    -0.062168     0.062501     0.130911     0.056447    -0.024253    -0.043076     0.052739     0.010157    -0.072774    -0.012212     0.084986
   14 H      2.740677    -1.020599     1.134109     0.279139     0.014333    -0.004981     0.046551     0.048961     0.014762     0.011151    -0.010944     0.019887     0.059028    -0.031981     0.006815     0.025166
   15 C      1.416389    -1.325570    -0.389360     0.524631     0.019769     0.034139    -0.047112     0.061448    -0.024220    -0.032188     0.033564    -0.049017    -0.178813    -0.076885    -0.001318     0.078203
   16 N     -2.530450     1.185280    -0.260292    -0.304774     0.056164    -0.029176     0.031724     0.070796     0.027899     0.058011    -0.091529     0.029759    -0.296649    -0.163600     0.080262     0.083338
   17 C      0.864389     1.944564     0.521055    -0.284670    -0.032093    -0.052609     0.012392     0.062859    -0.007169     0.044200    -0.018006     0.052760    -0.043357    -0.046325    -0.016489     0.062814
   18 N      2.567749    -0.864783     0.154535    -0.403747     0.074277     0.090060    -0.100398     0.153973     0.111866     0.026178    -0.058730     0.151911     0.257102    -0.192845     0.090550     0.102295
   19 H     -0.564239    -2.437699    -1.182308     0.295346    -0.001760     0.010674    -0.043034     0.044373     0.007997     0.015807    -0.001437     0.000615     0.075086    -0.023842    -0.007038     0.030881
   20 C     -0.181237    -1.011436     1.563234    -0.216506    -0.016757     0.012051    -0.068705     0.071739     0.008488     0.010488     0.015565    -0.031947    -0.011100    -0.020662    -0.008892     0.029554
   21 H      0.228851     4.806350    -1.197325     0.146170     0.007796     0.050560    -0.017334     0.054014     0.009056     0.006857    -0.016199    -0.026797    -0.070866    -0.031404    -0.000103     0.031507
   22 H      1.017214    -2.765519     1.178876     0.078113     0.018123    -0.043353     0.032652     0.057220    -0.011546     0.014257    -0.002239    -0.007813     0.001574    -0.018980     0.000170     0.018810
   23 C     -0.922894     0.074754     0.853785    -0.045641     0.067774    -0.046760     0.017763     0.084234    -0.012652     0.040008    -0.060093    -0.036544    -0.130124    -0.085357     0.002029     0.083328
   24 H     -0.848313    -1.589661     2.204720     0.121686    -0.030135    -0.024638     0.021108     0.044279     0.002043    -0.011413    -0.009608     0.013226     0.028773    -0.015527    -0.004832     0.020359
   25 H      0.592699    -0.580440     2.205967     0.089683     0.023018     0.021630     0.021720     0.038333     0.000175     0.014075     0.007624    -0.003043     0.001039    -0.016332     0.000510     0.015822
   26 C     -0.389443     1.328251     0.396400    -0.008062     0.045976    -0.002256     0.006444     0.046480     0.017312     0.027010    -0.034644     0.008537    -0.126728    -0.068953     0.030002     0.038952
   27 C     -1.421570     1.998592    -0.298779     0.160181    -0.049700    -0.028952    -0.009033     0.058222     0.048113     0.022111    -0.030501     0.046345    -0.191719    -0.085875     0.000474     0.085401
   28 H     -2.961907    -0.736131     0.576820     0.115962    -0.039447    -0.043925     0.010640     0.059989     0.009604     0.008910    -0.019950     0.005446    -0.052936    -0.032552     0.012299     0.020253
   29 C     -2.222632     0.036830     0.430347    -0.046173    -0.037892     0.061758    -0.054043     0.090391     0.011132     0.016403    -0.074599    -0.044108    -0.171410    -0.098950     0.010111     0.088839
   30 H     -2.032484     3.756619    -1.411277     0.121669    -0.030788     0.028440    -0.022556     0.047598     0.000536     0.010040    -0.014000    -0.005460    -0.054015    -0.026362     0.008037     0.018325
   31 F      2.235469     3.774874     0.014640    -0.188640    -0.104006    -0.048553    -0.005604     0.114918     0.078096     0.014230    -0.000088     0.112500    -0.177762    -0.070678    -0.056052     0.126730
   32 C      0.013616     3.838734    -0.763413    -0.235493    -0.045367    -0.007821    -0.007272     0.046607     0.020327     0.011741    -0.050670    -0.069913    -0.187481    -0.084040    -0.002393     0.086433
   33 C      1.029629     3.173003    -0.068521     0.291827     0.075674     0.046295    -0.000237     0.088713     0.070995     0.028460    -0.008888     0.095308    -0.203226    -0.083879    -0.037842     0.121722
   34 H     -3.427524     1.402844    -0.658027     0.294973    -0.048186     0.011002    -0.021225     0.053791     0.003308     0.012625    -0.014977     0.012808    -0.052751    -0.029243     0.009504     0.019739
   35 C     -1.233364     3.253843    -0.880084    -0.167276     0.031540     0.021373     0.000645     0.038106    -0.012065     0.045167    -0.042166     0.020631    -0.168946    -0.086493     0.014303     0.072190
   36 H      1.686138     1.484542     1.054794     0.125340     0.035139    -0.015768     0.022706     0.044709     0.002628     0.018490    -0.009749     0.028315    -0.019342    -0.023979    -0.003638     0.027616
 
The sperically averaged electron density of each atom fit to a function of the form exp(a - br) for r >=rmin_cloud_penetration
atom number,atomic symbol, x, y, z, a, b, Rsquared where a and b are in atomic units and Rsquared is the squared correlation coefficient
    1 C     -2.310474    -4.295404    -0.635008     0.632352     2.190917     0.999424
    2 C     -1.331324    -3.653253     0.324961     1.246570     2.413055     0.997373
    3 H      4.505652    -0.178788    -0.188089     0.185082     2.677003     0.999423
    4 H      3.534717    -0.495970    -1.644080     0.269073     2.649004     0.997812
    5 H      3.227931     0.960229    -0.685306     0.581331     2.576866     0.998690
    6 H     -2.319578    -3.827009    -1.618826    -1.039682     2.392237     0.995101
    7 H     -2.047884    -5.348821    -0.739731    -0.528617     2.441932     0.998087
    8 H     -3.305831    -4.246454    -0.193760    -0.823807     2.469485     0.999380
    9 N     -0.521690    -2.706501    -0.208832     1.015807     2.193768     0.998720
   10 O      1.135106    -1.183150    -1.562954    -1.098595     1.983102     0.999158
   11 O     -1.272763    -3.973973     1.497891    -1.162030     2.043273     0.996940
   12 C      0.468883    -2.025819     0.586039     1.075782     2.243573     0.998373
   13 C      3.515171    -0.094054    -0.632398     1.606586     2.392174     0.999718
   14 H      2.740677    -1.020599     1.134109    -0.910146     2.372849     0.996595
   15 C      1.416389    -1.325570    -0.389360     1.463534     2.391824     0.998370
   16 N     -2.530450     1.185280    -0.260292     0.774284     2.262349     0.999435
   17 C      0.864389     1.944564     0.521055     2.063129     2.324527     0.994245
   18 N      2.567749    -0.864783     0.154535     1.063690     2.255521     0.999336
   19 H     -0.564239    -2.437699    -1.182308    -0.983801     2.309849     0.999463
   20 C     -0.181237    -1.011436     1.563234     1.325581     2.196144     0.997790
   21 H      0.228851     4.806350    -1.197325    -0.769189     2.404922     0.999259
   22 H      1.017214    -2.765519     1.178876    -0.447623     2.398996     0.998663
   23 C     -0.922894     0.074754     0.853785     1.233819     2.206535     0.999311
   24 H     -0.848313    -1.589661     2.204720     0.167099     2.492351     0.998746
   25 H      0.592699    -0.580440     2.205967    -0.572580     2.344625     0.999391
   26 C     -0.389443     1.328251     0.396400     1.647317     2.276992     0.998068
   27 C     -1.421570     1.998592    -0.298779     1.938602     2.417267     0.997648
   28 H     -2.961907    -0.736131     0.576820    -0.605553     2.378587     0.999822
   29 C     -2.222632     0.036830     0.430347     1.008957     2.273823     0.997863
   30 H     -2.032484     3.756619    -1.411277    -0.738949     2.414751     0.998099
   31 F      2.235469     3.774874     0.014640     0.435666     2.658565     0.998481
   32 C      0.013616     3.838734    -0.763413     1.905725     2.409806     0.998816
   33 C      1.029629     3.173003    -0.068521     2.561303     2.586057     0.998849
   34 H     -3.427524     1.402844    -0.658027    -1.197049     2.466088     0.998214
   35 C     -1.233364     3.253843    -0.880084     1.802490     2.392080     0.999414
   36 H      1.686138     1.484542     1.054794     0.264582     2.442075     0.996549
 
 2021/12/22  23:08:44
