    36
 geometry
 C                    -2.30093691    -4.35820790    -0.59174314
 C                    -1.31046197    -3.70313830     0.34784554
 H                     4.37283117     0.08955327    -0.15588172
 H                     3.65510979    -0.59001185    -1.63603952
 H                     2.99973990     0.90354565    -0.94466036
 H                    -2.15550275    -4.07674183    -1.63441280
 H                    -2.20874557    -5.43887395    -0.48627691
 H                    -3.30937796    -4.08061273    -0.27964297
 N                    -0.53116128    -2.73883732    -0.20058763
 O                     1.09191790    -1.19887723    -1.58170234
 O                    -1.22990986    -4.01434604     1.52183647
 C                     0.45825251    -2.03870014     0.57874474
 C                     3.44510606    -0.06525708    -0.70379711
 H                     2.75372847    -1.03249136     1.07975239
 C                     1.38891896    -1.33827926    -0.41124942
 N                    -2.49579518     1.20525475    -0.30987582
 C                     0.87675790     1.95535366     0.57312531
 N                     2.53952139    -0.85635692     0.11216063
 H                    -0.58335777    -2.48340917    -1.17725556
 C                    -0.19306406    -1.01599226     1.54608446
 H                     0.27450013     4.85347020    -1.09530154
 H                     1.01576230    -2.76690896     1.17725748
 C                    -0.91654972     0.07690748     0.82700778
 H                    -0.87080882    -1.58624381     2.18383383
 H                     0.57834886    -0.58934356     2.19469365
 C                    -0.37257026     1.33873988     0.40494670
 C                    -1.38797682     2.02068427    -0.30397960
 H                    -2.94642705    -0.73114032     0.48122918
 C                    -2.20430334     0.04464024     0.36755832
 H                    -1.97639226     3.80169123    -1.39205374
 F                     2.25256862     3.80194136     0.14103899
 C                     0.05159268     3.87524737    -0.69009179
 C                     1.05222750     3.19738357     0.01512978
 H                    -3.37837219     1.42351288    -0.73827056
 C                    -1.18937647     3.28918342    -0.85239383
 H                     1.68888529     1.48493744     1.11277407
