    36
 geometry
 C                    -2.36103512    -4.29669647    -0.55704276
 C                    -1.32863349    -3.68797516     0.36679614
 H                     4.30956724     0.22098798    -0.15921264
 H                     3.71032539    -0.58346500    -1.62866504
 H                     2.91396710     0.88695355    -1.04137640
 H                    -2.15973053    -4.10207427    -1.61045962
 H                    -2.39437729    -5.37017082    -0.37641172
 H                    -3.33864102    -3.88653290    -0.29699087
 N                    -0.50768816    -2.76979731    -0.20004538
 O                     1.11162905    -1.25442181    -1.60423340
 O                    -1.25689806    -3.98792664     1.54433114
 C                     0.48748598    -2.06855798     0.57004591
 C                     3.42033948    -0.03177921    -0.73339409
 H                     2.74707633    -0.98549699     1.06399263
 C                     1.40606039    -1.36534680    -0.42976956
 N                    -2.45366844     1.14553977    -0.36696861
 C                     0.87469150     1.96483703     0.61842146
 N                     2.54011785    -0.84362081     0.08960975
 H                    -0.56670378    -2.51338967    -1.17649004
 C                    -0.15709125    -1.04020163     1.53691380
 H                     0.25157621     4.86435483    -1.04197594
 H                     1.05460021    -2.79262534     1.16497298
 C                    -0.88420614     0.04492227     0.80994305
 H                    -0.83015099    -1.60522322     2.18406855
 H                     0.61754286    -0.60590120     2.17605556
 C                    -0.35450682     1.31980200     0.40869658
 C                    -1.36432086     1.98402113    -0.32480262
 H                    -2.88759575    -0.80177400     0.40409764
 C                    -2.15826853    -0.01096422     0.31499247
 H                    -1.96271138     3.75708016    -1.41979347
 F                     2.21328470     3.85149924     0.24993992
 C                     0.03998944     3.87645144    -0.65206031
 C                     1.03512178     3.21677079     0.07771344
 H                    -3.33607002     1.35787455    -0.79932333
 C                    -1.17942954     3.26058667    -0.85931160
 H                     1.68303087     1.51053669     1.17753935
