    36
 geometry
 C                    -2.06027871    -4.51412991    -0.58910771
 C                    -0.97348521    -3.88807734     0.25410589
 H                     4.76968411    -0.93738759    -0.18590603
 H                     4.12237972    -2.26077722    -1.19111689
 H                     3.68475350    -0.59021310    -1.55809358
 H                    -1.82359003    -4.45937014    -1.65150570
 H                    -2.13731439    -5.55381621    -0.27188840
 H                    -3.01380039    -4.01847404    -0.39251168
 N                    -0.67288339    -2.58973556    -0.04744844
 O                     1.33537369    -1.64046427    -1.58845380
 O                    -0.45421664    -4.46331094     1.18572645
 C                     0.41812675    -1.89204846     0.60581617
 C                     3.90615284    -1.28579305    -0.74823669
 H                     2.91269793    -1.42003246     1.13333988
 C                     1.53084461    -1.63469042    -0.39423703
 N                    -2.62675980     1.40437223    -0.53199771
 C                     0.69320644     2.39345089     0.34940305
 N                     2.75627486    -1.36474079     0.13774312
 H                    -1.04240821    -2.15650292    -0.89554331
 C                    -0.10647048    -0.60983452     1.25443735
 H                    -0.53742265     5.51988592    -0.21652168
 H                     0.80345946    -2.57270434     1.36873374
 C                    -0.86113323     0.33645468     0.36571517
 H                    -0.78884892    -0.89836505     2.06531399
 H                     0.71181321    -0.07262712     1.74904591
 C                    -0.47802076     1.67377253     0.07093728
 C                    -1.61628317     2.33276436    -0.43272233
 H                    -2.85431070    -0.59990322     0.21243513
 C                    -2.17708112     0.23036042     0.03121256
 H                    -2.57646422     4.22098316    -0.81664147
 F                     1.68025332     4.50866507     0.60348741
 C                    -0.53097746     4.43859055    -0.19255973
 C                     0.61766116     3.75908290     0.24309135
 H                    -3.59051426     1.64765317    -0.64499893
 C                    -1.65622151     3.71818772    -0.54844747
 H                     1.57048288     1.89705171     0.74719708
