    36
 geometry
 C                    -2.37362037    -4.28868986    -0.51453358
 C                    -1.32438470    -3.67800296     0.38716338
 H                     4.36303960     0.14330078    -0.13549529
 H                     3.78342537    -0.66556279    -1.60938680
 H                     3.00500957     0.82595860    -1.05949843
 H                    -2.17082272    -4.12442463    -1.57169883
 H                    -2.42772598    -5.35572981    -0.30513596
 H                    -3.34322076    -3.85509681    -0.26209873
 N                    -0.48855430    -2.78470444    -0.20246003
 O                     1.13486056    -1.25246217    -1.61834058
 O                    -1.25124578    -3.95498478     1.57029337
 C                     0.50291743    -2.06592068     0.55702898
 C                     3.48265279    -0.09775891    -0.72903532
 H                     2.77215328    -1.05134965     1.05117411
 C                     1.42720191    -1.37506603    -0.44549823
 N                    -2.46653925     1.14628612    -0.40277102
 C                     0.85948484     1.97738865     0.58815823
 N                     2.56748645    -0.87760303     0.08297102
 H                    -0.54888118    -2.54511808    -1.18204166
 C                    -0.15690343    -1.02947349     1.50006381
 H                     0.16943717     4.93919166    -0.92824405
 H                     1.07367504    -2.77216400     1.16641057
 C                    -0.88209552     0.04432127     0.75473259
 H                    -0.83530727    -1.58883488     2.14565965
 H                     0.60674298    -0.58520265     2.14443855
 C                    -0.36855484     1.33073935     0.37247143
 C                    -1.38986930     2.00097935    -0.33990452
 H                    -2.87866147    -0.81633545     0.34356075
 C                    -2.15411692    -0.01991910     0.25777473
 H                    -2.02203737     3.81663138    -1.34623225
 F                     2.17121131     3.89421973     0.27919114
 C                    -0.01604301     3.92780035    -0.59292342
 C                     0.99925715     3.25135494     0.09601048
 H                    -3.33990738     1.33921154    -0.86067122
 C                    -1.22689247     3.30237004    -0.82215831
 H                     1.68150781     1.50292711     1.11082838
