    36
 geometry
 C                    -2.30604809    -4.36344827    -0.58049781
 C                    -1.30644448    -3.70944335     0.34951829
 H                     4.35201407     0.12707943    -0.14856275
 H                     3.67631119    -0.59494630    -1.62791288
 H                     2.97707759     0.89661978    -0.97738751
 H                    -2.14422397    -4.11465139    -1.62917607
 H                    -2.24467336    -5.44238559    -0.44327337
 H                    -3.30898944    -4.04925675    -0.28623697
 N                    -0.53158604    -2.74433538    -0.20481544
 O                     1.08845288    -1.19766345    -1.58964756
 O                    -1.21692375    -4.01992046     1.52319538
 C                     0.45847518    -2.04093341     0.57091238
 C                     3.43786363    -0.05790212    -0.70972438
 H                     2.74233252    -1.01867793     1.07569576
 C                     1.38517642    -1.33646975    -0.41904969
 N                    -2.48835096     1.20380963    -0.31918473
 C                     0.87782717     1.95577782     0.58280781
 N                     2.53407441    -0.85146573     0.10549778
 H                    -0.58810503    -2.49090001    -1.18176108
 C                    -0.19285592    -1.02092858     1.54049696
 H                     0.28110104     4.85608334    -1.08530133
 H                     1.02057150    -2.76746617     1.16685074
 C                    -0.91447671     0.07461949     0.82382915
 H                    -0.87014987    -1.59273887     2.17724343
 H                     0.57891257    -0.59690760     2.18988956
 C                    -0.36916757     1.33760106     0.40690548
 C                    -1.38133730     2.01983109    -0.30618749
 H                    -2.94254291    -0.73299461     0.46645738
 C                    -2.20008133     0.04300180     0.35890160
 H                    -1.96606085     3.79859316    -1.39928024
 F                     2.25186815     3.80721650     0.16791315
 C                     0.05715875     3.87738092    -0.68153965
 C                     1.05407271     3.19999893     0.02994955
 H                    -3.37349786     1.42953740    -0.73867230
 C                    -1.18148896     3.28842851    -0.85344820
 H                     1.68839385     1.48613351     1.12539798
