    36
 geometry
 C                    -2.36828283    -4.28523009    -0.50288716
 C                    -1.31789051    -3.66940940     0.39514697
 H                     4.38739731     0.11814907    -0.14229489
 H                     3.80235679    -0.69915203    -1.61138953
 H                     3.04437504     0.81343499    -1.07737187
 H                    -2.16478766    -4.12692289    -1.56175457
 H                    -2.42156601    -5.35100959    -0.28659708
 H                    -3.33809745    -3.84556733    -0.25552870
 N                    -0.48551455    -2.78497940    -0.20390446
 O                     1.13996092    -1.24589052    -1.61420230
 O                    -1.23924242    -3.93938783     1.57988742
 C                     0.50169897    -2.06263513     0.55683694
 C                     3.50672894    -0.11658472    -0.73737744
 H                     2.78754886    -1.06276249     1.05172214
 C                     1.43279687    -1.37138562    -0.44165232
 N                    -2.47257738     1.14906302    -0.41162479
 C                     0.85069114     1.97452037     0.58140512
 N                     2.57835005    -0.87644827     0.08667855
 H                    -0.55220550    -2.54477643    -1.18274645
 C                    -0.16497017    -1.02443520     1.49456131
 H                     0.15921868     4.94996054    -0.90883575
 H                     1.06391603    -2.77706357     1.17014019
 C                    -0.89234002     0.04329855     0.74416589
 H                    -0.84715539    -1.58495962     2.13785849
 H                     0.59164764    -0.57599176     2.14454030
 C                    -0.37752559     1.33126949     0.36977739
 C                    -1.40012597     2.00743053    -0.33602995
 H                    -2.87808090    -0.82563554     0.29650383
 C                    -2.16142740    -0.02073090     0.23784325
 H                    -2.04312227     3.83687011    -1.31190349
 F                     2.16261698     3.89258223     0.28121923
 C                    -0.02805591     3.93646023    -0.57631125
 C                     0.99037015     3.25075288     0.09682406
 H                    -3.34771670     1.33697833    -0.87149895
 C                    -1.24236515     3.31422762    -0.80095045
 H                     1.67805464     1.49423706     1.08955328
