    36
 geometry
 C                    -2.29676805    -4.35195507    -0.60607686
 C                    -1.31781992    -3.69270478     0.34206925
 H                     4.40313250     0.03191856    -0.16018952
 H                     3.62494815    -0.57781013    -1.64042379
 H                     3.04218256     0.91755429    -0.89241168
 H                    -2.18337883    -4.02681987    -1.64010076
 H                    -2.15415254    -5.43092187    -0.54448572
 H                    -3.30954722    -4.13378416    -0.26507383
 N                    -0.53159944    -2.73072488    -0.20021403
 O                     1.09145812    -1.18272032    -1.57183508
 O                    -1.24720175    -4.00566775     1.51622215
 C                     0.45706457    -2.03407184     0.58342205
 C                     3.45724908    -0.07377221    -0.68871559
 H                     2.75086133    -1.03411505     1.09221444
 C                     1.38955728    -1.33110174    -0.40300992
 N                    -2.50205898     1.20331156    -0.29883251
 C                     0.87635330     1.95248287     0.55843189
 N                     2.54464468    -0.86093404     0.12251201
 H                    -0.58194926    -2.46990645    -1.17552640
 C                    -0.19283688    -1.01293810     1.55293230
 H                     0.26683907     4.84514835    -1.11822968
 H                     1.01406095    -2.76409799     1.18011430
 C                    -0.91830642     0.07937378     0.83553017
 H                    -0.86874556    -1.58358584     2.19204626
 H                     0.58050592    -0.58681987     2.19951761
 C                    -0.37509285     1.33810644     0.40363073
 C                    -1.39365240     2.01788347    -0.30255743
 H                    -2.95028486    -0.72832370     0.50371018
 C                    -2.20847392     0.04658859     0.38354284
 H                    -1.98794745     3.79493668    -1.39356191
 F                     2.25409395     3.79189355     0.10739083
 C                     0.04597352     3.86897703    -0.70680792
 C                     1.05060908     3.19137173    -0.00670767
 H                    -3.39000346     1.42502950    -0.71417455
 C                    -1.19706572     3.28355197    -0.85788020
 H                     1.69203065     1.48292397     1.09333100
