    36
 geometry
 C                    -2.27428575    -4.33749690    -0.54232292
 C                    -1.33794711    -3.61876365     0.40236949
 H                     4.54652924    -0.19236288    -0.27535524
 H                     3.92081680    -1.21742551    -1.59579992
 H                     3.29599936     0.42665099    -1.37810994
 H                    -1.99180442    -4.22824745    -1.58921590
 H                    -2.27922108    -5.39493611    -0.27705168
 H                    -3.28319130    -3.94889546    -0.39628099
 N                    -0.47261798    -2.76041334    -0.18217118
 O                     1.13963121    -1.22766693    -1.60639884
 O                    -1.36865482    -3.79625001     1.60643754
 C                     0.49465596    -2.00613999     0.57573621
 C                     3.66189213    -0.45672109    -0.85137050
 H                     2.91946002    -1.31525516     0.95503990
 C                     1.44660568    -1.37201771    -0.43974366
 N                    -2.51689535     1.18868523    -0.42464669
 C                     0.75185590     2.11809301     0.66449163
 N                     2.63386317    -0.94609240     0.05811051
 H                    -0.48386862    -2.58601324    -1.17896238
 C                    -0.15679284    -0.92488342     1.47748658
 H                     0.00381367     5.08140233    -0.81118846
 H                     1.03999707    -2.69638342     1.22653625
 C                    -0.90674838     0.12100939     0.72410582
 H                    -0.81746313    -1.45412267     2.16119982
 H                     0.62788468    -0.46279400     2.08508974
 C                    -0.43209046     1.42771992     0.36768963
 C                    -1.46737400     2.07422836    -0.34417812
 H                    -2.88392177    -0.78591833     0.32504833
 C                    -2.17993929     0.02727180     0.23149976
 H                    -2.13456721     3.88339327    -1.34017251
 F                     1.95976736     4.12561390     0.51420286
 C                    -0.16587075     4.06089221    -0.49685446
 C                     0.84592683     3.41778437     0.22617596
 H                    -3.41644529     1.37908509    -0.82487987
 C                    -1.34057164     3.39155452    -0.79373382
 H                     1.55625134     1.66369193     1.22702001
