    36
 geometry
 C                    -2.37269444    -4.29187022    -0.54979793
 C                    -1.33501723    -3.68173668     0.36963914
 H                     4.30831034     0.22523688    -0.14901979
 H                     3.71692455    -0.57650570    -1.62366349
 H                     2.91199058     0.88737613    -1.03263111
 H                    -2.17468706    -4.10710261    -1.60530279
 H                    -2.40931730    -5.36365717    -0.36157103
 H                    -3.34890108    -3.87569576    -0.29154159
 N                    -0.50661083    -2.77414191    -0.20310528
 O                     1.11979837    -1.25966307    -1.60896511
 O                    -1.26706582    -3.97194487     1.54959665
 C                     0.49199127    -2.07343329     0.56418787
 C                     3.42222275    -0.02983012    -0.72771715
 H                     2.75184191    -0.99892497     1.06241124
 C                     1.41174939    -1.37188878    -0.43428627
 N                    -2.45018826     1.14077727    -0.36958817
 C                     0.87423644     1.96916864     0.61732783
 N                     2.54349575    -0.84872918     0.08934612
 H                    -0.56339464    -2.52618020    -1.18150606
 C                    -0.14916548    -1.04280746     1.52987617
 H                     0.24112782     4.86889042    -1.03887273
 H                     1.05884649    -2.79667082     1.15967199
 C                    -0.87623869     0.04241562     0.80264017
 H                    -0.82124995    -1.60602298     2.17951469
 H                     0.62823102    -0.60904828     2.16573248
 C                    -0.35228206     1.32132452     0.40688188
 C                    -1.36504739     1.98456631    -0.32410530
 H                    -2.87443143    -0.81180841     0.38969389
 C                    -2.14890859    -0.01725413     0.30600417
 H                    -1.96825998     3.75848742    -1.41489896
 F                     2.20564834     3.86350663     0.25862382
 C                     0.03292062     3.88220578    -0.64703909
 C                     1.03011716     3.22463024     0.08230770
 H                    -3.33097827     1.34629806    -0.80823246
 C                    -1.18488220     3.26325681    -0.85465675
 H                     1.68454713     1.51505252     1.17284819
