    36
 geometry
 C                    -2.31751701    -4.35678528    -0.57562906
 C                    -1.31182963    -3.70699294     0.35139172
 H                     4.33647607     0.15356382    -0.14556747
 H                     3.68993599    -0.59776532    -1.62315881
 H                     2.96499155     0.89531635    -1.00356554
 H                    -2.14242291    -4.12973286    -1.62712067
 H                    -2.27936373    -5.43399547    -0.41898099
 H                    -3.31649500    -4.01670676    -0.29619930
 N                    -0.53462456    -2.74471207    -0.20494992
 O                     1.09035995    -1.21154363    -1.59773865
 O                    -1.22114000    -4.01712914     1.52488595
 C                     0.46023196    -2.04456825     0.56777304
 C                     3.43224783    -0.05011585    -0.71629795
 H                     2.73511978    -1.00452306     1.07104557
 C                     1.38431933    -1.33940238    -0.42522538
 N                    -2.47769788     1.19117718    -0.32806930
 C                     0.87907525     1.96075975     0.59517392
 N                     2.52692091    -0.84082525     0.10032957
 H                    -0.59472677    -2.48985660    -1.18154067
 C                    -0.18458988    -1.02519958     1.54209177
 H                     0.27812457     4.85753817    -1.07662886
 H                     1.02409104    -2.77351903     1.15926100
 C                    -0.90603735     0.07084848     0.82648836
 H                    -0.86115394    -1.59583321     2.18075356
 H                     0.59004386    -0.60319455     2.18946095
 C                    -0.36381858     1.33608767     0.41207972
 C                    -1.37466930     2.01267516    -0.30850672
 H                    -2.92745259    -0.74721959     0.45661131
 C                    -2.18829637     0.03263576     0.35304221
 H                    -1.96113547     3.78772931    -1.40663051
 F                     2.24636924     3.81868133     0.18619623
 C                     0.05651942     3.87729653    -0.67537854
 C                     1.05250965     3.20527244     0.04230725
 H                    -3.36063558     1.41044400    -0.75585766
 C                    -1.17784659     3.28203366    -0.85507426
 H                     1.68879598     1.49583788     1.14303109
