    36
 geometry
 C                    -2.22596855    -4.38220821    -0.56395095
 C                    -1.33876242    -3.62015035     0.39723110
 H                     4.57869738    -0.33291525    -0.27853121
 H                     3.99166507    -1.41637057    -1.56034503
 H                     3.36727753     0.23660903    -1.44607311
 H                    -1.90074218    -4.27069267    -1.59683839
 H                    -2.21259285    -5.43338707    -0.27809184
 H                    -3.25478141    -4.02542601    -0.46885536
 N                    -0.53334004    -2.69894682    -0.17973694
 O                     1.14125021    -1.29774414    -1.62111455
 O                    -1.35582271    -3.81397868     1.59566916
 C                     0.46605935    -1.98459755     0.57332485
 C                     3.70900761    -0.61973716    -0.86589529
 H                     2.92042715    -1.39240126     0.94918840
 C                     1.44476119    -1.42021624    -0.45089298
 N                    -2.52056285     1.22165090    -0.40707509
 C                     0.72890638     2.21608219     0.67601252
 N                     2.65734260    -1.05639723     0.03695692
 H                    -0.51163324    -2.54675322    -1.17550651
 C                    -0.13991859    -0.88607112     1.47494203
 H                    -0.10914728     5.17249055    -0.77653335
 H                     0.98369443    -2.69907935     1.22685212
 C                    -0.88959098     0.16435753     0.72194388
 H                    -0.78587565    -1.40582508     2.18771423
 H                     0.67380413    -0.42401347     2.04409809
 C                    -0.43741682     1.48865230     0.38655433
 C                    -1.48495015     2.12381326    -0.31977466
 H                    -2.84892666    -0.76836604     0.32226444
 C                    -2.16099341     0.06021710     0.23062014
 H                    -2.19672681     3.90876234    -1.32493538
 F                     1.87873027     4.25240022     0.55567908
 C                    -0.23735150     4.14261758    -0.47224570
 C                     0.78342756     3.52230340     0.25361611
 H                    -3.42002837     1.40979552    -0.81568179
 C                    -1.39081773     3.44074471    -0.76727813
 H                     1.56557854     1.79305752     1.21649181
