    36
 geometry
 C                    -2.34533385    -4.31518577    -0.56769550
 C                    -1.32047678    -3.69765627     0.36072042
 H                     4.31547021     0.20412779    -0.16438362
 H                     3.70110610    -0.59900207    -1.62833485
 H                     2.92652628     0.88479490    -1.04569094
 H                    -2.14889453    -4.10973677    -1.61974069
 H                    -2.36193046    -5.39061153    -0.39687132
 H                    -3.32963990    -3.92248717    -0.30447565
 N                    -0.51869937    -2.75772236    -0.19801193
 O                     1.10073501    -1.23780830    -1.59862893
 O                    -1.24031419    -4.00757085     1.53498358
 C                     0.47737313    -2.05760030     0.57351832
 C                     3.42145459    -0.03906407    -0.73540673
 H                     2.74019924    -0.97401590     1.06858883
 C                     1.39580143    -1.35233787    -0.42492814
 N                    -2.46136365     1.16068954    -0.35002359
 C                     0.87605246     1.96438032     0.61593542
 N                     2.53420974    -0.83770057     0.09312903
 H                    -0.57209501    -2.50764751    -1.17594832
 C                    -0.16834494    -1.03531794     1.54470565
 H                     0.26398421     4.85702136    -1.05963732
 H                     1.04495902    -2.78358837     1.16506106
 C                    -0.89233409     0.05517344     0.82247451
 H                    -0.84377698    -1.60462544     2.18524385
 H                     0.60468216    -0.60822667     2.19054329
 C                    -0.35798309     1.32634109     0.41582886
 C                    -1.36728407     1.99338921    -0.31589423
 H                    -2.89981447    -0.78416521     0.42490955
 C                    -2.16805529     0.00386442     0.33222133
 H                    -1.95905943     3.76450818    -1.41710785
 F                     2.22669395     3.83923539     0.22993481
 C                     0.04840511     3.87411156    -0.66143911
 C                     1.04261831     3.21212647     0.06781341
 H                    -3.33794757     1.36697577    -0.79617761
 C                    -1.17676027     3.26589631    -0.85780320
 H                     1.68451622     1.50771188     1.17239060
