    36
 geometry
 C                    -2.31127470    -4.29492791    -0.63441870
 C                    -1.33117877    -3.65362581     0.32511954
 H                     4.50408034    -0.17411558    -0.18584532
 H                     3.53826973    -0.49938252    -1.64352960
 H                     3.22437293     0.95936942    -0.69072052
 H                    -2.31842766    -3.82810887    -1.61907041
 H                    -2.05154568    -5.34928308    -0.73695359
 H                    -3.30690219    -4.24208554    -0.19400122
 N                    -0.52189645    -2.70663958    -0.20889658
 O                     1.13597619    -1.18490087    -1.56374038
 O                    -1.27193769    -3.97469817     1.49792940
 C                     0.46903381    -2.02620545     0.58570327
 C                     3.51461335    -0.09385362    -0.63324041
 H                     2.73988520    -1.01854622     1.13399252
 C                     1.41660839    -1.32616187    -0.38980196
 N                    -2.52982919     1.18466997    -0.26107823
 C                     0.86446451     1.94483396     0.52189578
 N                     2.56746339    -0.86437812     0.15412850
 H                    -0.56423816    -2.43842681    -1.18257169
 C                    -0.18070465    -1.01177788     1.56301649
 H                     0.22862801     4.80689956    -1.19596734
 H                     1.01744484    -2.76605205     1.17819471
 C                    -0.92240698     0.07440034     0.85349093
 H                    -0.84778878    -1.58965231     2.20488031
 H                     0.59341267    -0.58080159     2.20549603
 C                    -0.38908082     1.32806333     0.39646259
 C                    -1.42112540     1.99825856    -0.29900048
 H                    -2.96116181    -0.73699917     0.57551059
 C                    -2.22200373     0.03620011     0.42956669
 H                    -2.03215799     3.75630789    -1.41147340
 F                     2.23493731     3.77601928     0.01693475
 C                     0.01358002     3.83909517    -0.76241587
 C                     1.02946979     3.17357270    -0.06716139
 H                    -3.42693585     1.40236388    -0.65865841
 C                    -1.23310267     3.25372806    -0.87995620
 H                     1.68613788     1.48511745     1.05598256
