    36
 geometry
 C                    -2.31774483    -4.30447315    -0.61730962
 C                    -1.33504481    -3.66149223     0.33890635
 H                     4.46037954    -0.07229080    -0.16970935
 H                     3.58433852    -0.54672392    -1.64407324
 H                     3.13392789     0.94340115    -0.79550153
 H                    -2.26367439    -3.89534606    -1.62675496
 H                    -2.11589280    -5.37661252    -0.64924164
 H                    -3.32500961    -4.16840395    -0.21972722
 N                    -0.51786873    -2.72600596    -0.20432032
 O                     1.11838565    -1.18570901    -1.56816938
 O                    -1.28448550    -3.96660231     1.51621526
 C                     0.47151570    -2.03661686     0.58413320
 C                     3.48861064    -0.08330298    -0.66221642
 H                     2.74592886    -1.02135356     1.11415184
 C                     1.40783417    -1.33094549    -0.39694875
 N                    -2.51057118     1.17883321    -0.28717907
 C                     0.86951390     1.95198022     0.54410463
 N                     2.55836553    -0.86067443     0.13859272
 H                    -0.56154626    -2.46384986    -1.17966873
 C                    -0.17723129    -1.01756205     1.55741021
 H                     0.23461507     4.82827927    -1.15084879
 H                     1.02751718    -2.77043389     1.17736022
 C                    -0.91275908     0.06918612     0.84208894
 H                    -0.84715083    -1.58917633     2.20202679
 H                     0.59809915    -0.58618567     2.19774325
 C                    -0.37950031     1.32911327     0.40112485
 C                    -1.40641960     1.99902883    -0.30266643
 H                    -2.94251917    -0.75186107     0.52704603
 C                    -2.20577864     0.02671686     0.39882244
 H                    -2.01610921     3.76183978    -1.40671201
 F                     2.23425207     3.79620574     0.06942355
 C                     0.02063168     3.85407487    -0.73099752
 C                     1.03319894     3.18742819    -0.03183147
 H                    -3.40259625     1.39400694    -0.69733164
 C                    -1.22019237     3.26120856    -0.86934071
 H                     1.68965956     1.49259580     1.08120147
