    36
 geometry
 C                    -2.31047380    -4.29540419    -0.63500864
 C                    -1.33132392    -3.65325308     0.32496138
 H                     4.50565216    -0.17878760    -0.18808845
 H                     3.53471674    -0.49596979    -1.64407984
 H                     3.22793103     0.96022888    -0.68530596
 H                    -2.31957828    -3.82700953    -1.61882626
 H                    -2.04788345    -5.34882099    -0.73973065
 H                    -3.30583076    -4.24645400    -0.19375978
 N                    -0.52168995    -2.70650136    -0.20883195
 O                     1.13510611    -1.18314958    -1.56295348
 O                    -1.27276337    -3.97397275     1.49789109
 C                     0.46888301    -2.02581851     0.58603899
 C                     3.51517091    -0.09405384    -0.63239798
 H                     2.74067748    -1.02059926     1.13410956
 C                     1.41638974    -1.32557008    -0.38936025
 N                    -2.53044994     1.18527965    -0.26029207
 C                     0.86438877     1.94456383     0.52105511
 N                     2.56774875    -0.86478274     0.15453438
 H                    -0.56423948    -2.43769868    -1.18230846
 C                    -0.18123718    -1.01143568     1.56323340
 H                     0.22885088     4.80634964    -1.19732539
 H                     1.01721397    -2.76551919     1.17887594
 C                    -0.92289429     0.07475369     0.85378529
 H                    -0.84831288    -1.58966094     2.20472026
 H                     0.59269887    -0.58044028     2.20596666
 C                    -0.38944316     1.32825134     0.39640049
 C                    -1.42156945     1.99859228    -0.29877933
 H                    -2.96190659    -0.73613109     0.57682025
 C                    -2.22263215     0.03683003     0.43034724
 H                    -2.03248408     3.75661873    -1.41127673
 F                     2.23546929     3.77487452     0.01464003
 C                     0.01361631     3.83873415    -0.76341354
 C                     1.02962860     3.17300328    -0.06852050
 H                    -3.42752466     1.40284435    -0.65802721
 C                    -1.23336386     3.25384339    -0.88008405
 H                     1.68613786     1.48454207     1.05479342
