    36
 geometry
 C                    -2.29519534    -4.35909836    -0.60279641
 C                    -1.31394189    -3.69867609     0.34219404
 H                     4.39249621     0.04830497    -0.15691591
 H                     3.63685634    -0.58493427    -1.63753906
 H                     3.03114485     0.91167122    -0.91152416
 H                    -2.17256947    -4.05033708    -1.64084548
 H                    -2.16641139    -5.43796987    -0.52423687
 H                    -3.30677076    -4.12245349    -0.27068088
 N                    -0.53389395    -2.73131141    -0.20016655
 O                     1.08744289    -1.18636407    -1.57427621
 O                    -1.23769100    -4.01372107     1.51538510
 C                     0.45576241    -2.03500608     0.58246658
 C                     3.45356011    -0.07258416    -0.69347904
 H                     2.74855639    -1.03293393     1.08730418
 C                     1.38725128    -1.33254948    -0.40520535
 N                    -2.50058006     1.20645705    -0.30113585
 C                     0.87615800     1.95462129     0.56284445
 N                     2.54144173    -0.85978732     0.11835699
 H                    -0.58513618    -2.46984381    -1.17525421
 C                    -0.19418274    -1.01253915     1.55161784
 H                     0.27078427     4.84896705    -1.11230418
 H                     1.01229793    -2.76548676     1.17914238
 C                    -0.91810280     0.08079530     0.83360346
 H                    -0.87183605    -1.58256664     2.18976339
 H                     0.57798394    -0.58765376     2.20002766
 C                    -0.37506294     1.34122798     0.40594971
 C                    -1.39239936     2.02207418    -0.30090038
 H                    -2.94906286    -0.72754697     0.49615979
 C                    -2.20716277     0.04787533     0.37914006
 H                    -1.98282625     3.80100895    -1.39259100
 F                     2.25679153     3.79209437     0.11293159
 C                     0.04876291     3.87291898    -0.70117087
 C                     1.05224823     3.19343835    -0.00111023
 H                    -3.38794561     1.42703822    -0.71912749
 C                    -1.19470190     3.28891628    -0.85412265
 H                     1.69061352     1.48423093     1.09829855
