    36
 geometry
 C                    -2.30843260    -4.36478361    -0.57817701
 C                    -1.30561308    -3.71205873     0.34981409
 H                     4.34470295     0.13578851    -0.14373941
 H                     3.68532317    -0.59574758    -1.62528995
 H                     2.97253720     0.89521143    -0.98626125
 H                    -2.14269560    -4.12512613    -1.62831594
 H                    -2.25719167    -5.44321949    -0.43275096
 H                    -3.30935714    -4.03935964    -0.28864850
 N                    -0.53369679    -2.74487782    -0.20477533
 O                     1.08560260    -1.20187732    -1.59343688
 O                    -1.21269324    -4.02379596     1.52270821
 C                     0.45801678    -2.04202367     0.56948867
 C                     3.43600459    -0.05597862    -0.71145055
 H                     2.73584568    -1.01331114     1.07327272
 C                     1.38269102    -1.33744700    -0.42263980
 N                    -2.48501115     1.20170999    -0.32223746
 C                     0.87884792     1.95881741     0.58710763
 N                     2.53029728    -0.84961058     0.10174614
 H                    -0.59118337    -2.49153424    -1.18163421
 C                    -0.19111843    -1.02186949     1.54055610
 H                     0.28182135     4.85700298    -1.08341666
 H                     1.02136631    -2.76893473     1.16379941
 C                    -0.91179129     0.07447921     0.82380436
 H                    -0.86970841    -1.59290478     2.17660647
 H                     0.58074936    -0.59904236     2.19098645
 C                    -0.36735531     1.33863044     0.40860550
 C                    -1.37936440     2.01973053    -0.30604928
 H                    -2.93689103    -0.73731425     0.46046356
 C                    -2.19624876     0.04089746     0.35560000
 H                    -1.96397724     3.79863040    -1.39933501
 F                     2.25180390     3.81078408     0.17152324
 C                     0.05799568     3.87862147    -0.67937101
 C                     1.05475823     3.20265147     0.03338057
 H                    -3.37053888     1.42663971    -0.74101409
 C                    -1.17984356     3.28888992    -0.85255649
 H                     1.68902716     1.49060880     1.13143963
