    36
 geometry
 C                    -2.16959430    -4.46249032    -0.59704675
 C                    -1.30568384    -3.66430388     0.35793961
 H                     4.64793928    -0.56211279    -0.27198096
 H                     4.08686485    -1.74431258    -1.47858608
 H                     3.45634133    -0.08314554    -1.50165198
 H                    -1.83493914    -4.38775255    -1.63333931
 H                    -2.12879780    -5.50194365    -0.27453281
 H                    -3.20285822    -4.12296593    -0.53122060
 N                    -0.61765501    -2.62218503    -0.18631945
 O                     1.22439625    -1.41166550    -1.64390656
 O                    -1.23385790    -3.93679351     1.54353145
 C                     0.42753293    -1.96211931     0.56149184
 C                     3.79404773    -0.89709587    -0.85521775
 H                     2.89748984    -1.45431539     1.00941437
 C                     1.47996625    -1.51312309    -0.45883890
 N                    -2.53807249     1.28619252    -0.37953723
 C                     0.69684261     2.36476821     0.66809360
 N                     2.70932299    -1.25459311     0.03932657
 H                    -0.60623487    -2.45822339    -1.18099340
 C                    -0.09239992    -0.79842882     1.44137851
 H                    -0.28375448     5.33196138    -0.68216153
 H                     0.86295307    -2.69915005     1.24548357
 C                    -0.85739923     0.26068448     0.70538088
 H                    -0.73271620    -1.26082179     2.19788803
 H                     0.75266787    -0.34683853     1.97286289
 C                    -0.45982958     1.61016892     0.40844084
 C                    -1.54316029     2.22771581    -0.26568590
 H                    -2.76688661    -0.75026931     0.23771514
 C                    -2.12509536     0.11877023     0.21112502
 H                    -2.34156087     4.00675111    -1.21561134
 F                     1.79540728     4.43176862     0.49085450
 C                    -0.37232265     4.28919649    -0.40144762
 C                     0.70171062     3.67642984     0.25812030
 H                    -3.44135150     1.43678122    -0.79435441
 C                    -1.50879240     3.56007399    -0.68578221
 H                     1.56415899     1.95166379     1.16897066
