    36
 geometry
 C                    -2.29947573    -4.35883536    -0.59379512
 C                    -1.31081240    -3.70256682     0.34676095
 H                     4.37648986     0.08143492    -0.15600548
 H                     3.65214197    -0.59015202    -1.63635329
 H                     3.00578267     0.90455953    -0.93898256
 H                    -2.15794898    -4.07255301    -1.63575446
 H                    -2.20050879    -5.43927876    -0.49307996
 H                    -3.30868725    -4.08851152    -0.27821700
 N                    -0.53191837    -2.73717682    -0.20035566
 O                     1.09096970    -1.19723150    -1.58027016
 O                    -1.23072491    -4.01470348     1.52054108
 C                     0.45770356    -2.03808436     0.57964384
 C                     3.44677988    -0.06715644    -0.70210845
 H                     2.75310487    -1.03331381     1.08083583
 C                     1.38865190    -1.33760385    -0.41002799
 N                    -2.49697516     1.20590851    -0.30802825
 C                     0.87655371     1.95553851     0.57113710
 N                     2.53981139    -0.85714923     0.11323092
 H                    -0.58386752    -2.48049839    -1.17670382
 C                    -0.19335889    -1.01502600     1.54707316
 H                     0.27359614     4.85318872    -1.09799062
 H                     1.01458605    -2.76693212     1.17797935
 C                    -0.91683969     0.07786578     0.82788737
 H                    -0.87131653    -1.58498541     2.18491502
 H                     0.57799903    -0.58861338     2.19579303
 C                    -0.37319954     1.33964503     0.40510199
 C                    -1.38909173     2.02151275    -0.30312939
 H                    -2.94698535    -0.73032670     0.48384936
 C                    -2.20486210     0.04539751     0.36947692
 H                    -1.97763359     3.80264617    -1.39142698
 F                     2.25343250     3.80032963     0.13517763
 C                     0.05091476     3.87528403    -0.69180639
 C                     1.05218405     3.19694366     0.01208653
 H                    -3.38017450     1.42380899    -0.73557781
 C                    -1.19067308     3.28992595    -0.85203935
 H                     1.68903131     1.48498597     1.10996562
