    36
 geometry
 C                    -2.09855226    -4.53690765    -0.59186158
 C                    -1.13314413    -3.82863419     0.33752419
 H                     4.68843309    -0.80863411    -0.14589588
 H                     4.14089118    -2.06886770    -1.27747717
 H                     3.66525718    -0.37770813    -1.53149868
 H                    -1.79815788    -4.44527124    -1.63783061
 H                    -2.13782247    -5.58514030    -0.30470139
 H                    -3.09248362    -4.09909931    -0.48199921
 N                    -0.69031297    -2.61469466    -0.11610513
 O                     1.26506672    -1.61987356    -1.68004766
 O                    -0.81326902    -4.27862958     1.41904824
 C                     0.39667238    -1.93126527     0.55095551
 C                     3.86347835    -1.13846702    -0.77545009
 H                     2.81992864    -1.54023249     1.03042147
 C                     1.48157244    -1.61095225    -0.48364482
 N                    -2.60252622     1.39565664    -0.37272770
 C                     0.66693082     2.45586142     0.57654410
 N                     2.68858956    -1.31392732     0.05948411
 H                    -0.77302872    -2.39424436    -1.09978871
 C                    -0.07153673    -0.68968735     1.33874872
 H                    -0.42624293     5.48092273    -0.54251261
 H                     0.81249870    -2.63791461     1.27868761
 C                    -0.86084308     0.33282124     0.57590637
 H                    -0.67395103    -1.05730259     2.17326706
 H                     0.79919080    -0.19600533     1.77745177
 C                    -0.49723140     1.70479475     0.33979934
 C                    -1.61759585     2.34114307    -0.24183596
 H                    -2.76353334    -0.68375987     0.10967810
 C                    -2.14126570     0.19617998     0.11189227
 H                    -2.52179137     4.18597267    -0.92259006
 F                     1.75066129     4.53230068     0.42853637
 C                    -0.47511009     4.42446984    -0.31451426
 C                     0.64391664     3.78596059     0.23040774
 H                    -3.49419471     1.55524182    -0.80255384
 C                    -1.63023972     3.70125914    -0.54116460
 H                     1.56442466     2.02291100     1.00564994
