    36
 geometry
 C                    -2.34757678    -4.31253211    -0.56641944
 C                    -1.32180475    -3.69641816     0.36216926
 H                     4.31491947     0.20694806    -0.16482208
 H                     3.70273161    -0.59748997    -1.62876417
 H                     2.92441833     0.88387575    -1.04677499
 H                    -2.14969853    -4.10807407    -1.61861084
 H                    -2.36674809    -5.38774827    -0.39486124
 H                    -3.33105468    -3.91693320    -0.30474734
 N                    -0.51753448    -2.75902414    -0.19749357
 O                     1.10223239    -1.24033385    -1.59913342
 O                    -1.24243083    -4.00531392     1.53661511
 C                     0.47890941    -2.05883800     0.57317040
 C                     3.42138452    -0.03833309    -0.73601750
 H                     2.74168122    -0.97417437     1.06807596
 C                     1.39739900    -1.35405461    -0.42526969
 N                    -2.46014706     1.15836299    -0.35244611
 C                     0.87561928     1.96477708     0.61653604
 N                     2.53574624    -0.83867271     0.09252593
 H                    -0.57158308    -2.50892833    -1.17542794
 C                    -0.16713002    -1.03593172     1.54402682
 H                     0.26163532     4.85798194    -1.05655186
 H                     1.04639576    -2.78466328     1.16498405
 C                    -0.89133690     0.05386286     0.82132599
 H                    -0.84192187    -1.60530743     2.18524111
 H                     0.60581757    -0.60778585     2.18948628
 C                    -0.35775694     1.32562430     0.41576271
 C                    -1.36681298     1.99217488    -0.31712799
 H                    -2.89815882    -0.78680851     0.42150968
 C                    -2.16656328     0.00169477     0.33017007
 H                    -1.95893810     3.76365987    -1.41864516
 F                     2.22525392     3.84078692     0.23285072
 C                     0.04731529     3.87438693    -0.66032774
 C                     1.04176183     3.21289649     0.06958182
 H                    -3.33774812     1.36527614    -0.79662829
 C                    -1.17738776     3.26510075    -0.85815866
 H                     1.68379110     1.50823256     1.17399903
