    36
 geometry
 C                    -2.31358677    -4.30057055    -0.62755103
 C                    -1.32989677    -3.65888995     0.32829550
 H                     4.48948216    -0.13495020    -0.17453416
 H                     3.56238468    -0.52259778    -1.64223899
 H                     3.19251153     0.95158473    -0.73384837
 H                    -2.30009414    -3.85778711    -1.62309787
 H                    -2.07788695    -5.36277547    -0.70088960
 H                    -3.31276184    -4.21457747    -0.20004872
 N                    -0.52212380    -2.71194614    -0.20833668
 O                     1.13356226    -1.19026290    -1.56723629
 O                    -1.26866015    -3.97803643     1.50160259
 C                     0.46919452    -2.02934802     0.58406778
 C                     3.50772682    -0.09207698    -0.64335056
 H                     2.74096557    -1.01725683     1.12784103
 C                     1.41506664    -1.32976196    -0.39329677
 N                    -2.52459063     1.18483485    -0.26993728
 C                     0.86556571     1.94742164     0.52864584
 N                     2.56509941    -0.86389025     0.14850737
 H                    -0.56480308    -2.44632452    -1.18271258
 C                    -0.17991669    -1.01245865     1.55918335
 H                     0.23035192     4.81666577    -1.17781169
 H                     1.01816332    -2.76772702     1.17810805
 C                    -0.91998455     0.07345688     0.84754731
 H                    -0.84747871    -1.58821850     2.20251075
 H                     0.59456246    -0.58047723     2.20066567
 C                    -0.38660041     1.32917724     0.39627926
 C                    -1.41708315     2.00031504    -0.30069596
 H                    -2.95653624    -0.73967638     0.55947084
 C                    -2.21777318     0.03468384     0.41833272
 H                    -2.02677945     3.76184587    -1.40833361
 F                     2.23369167     3.78477515     0.03903622
 C                     0.01564782     3.84634116    -0.74959629
 C                     1.03015530     3.17973022    -0.05334442
 H                    -3.42054307     1.40232251    -0.67029692
 C                    -1.22908763     3.25855697    -0.87553687
 H                     1.68673464     1.48617512     1.06240335
