    36
 geometry
 C                    -2.35609755    -4.30118309    -0.56035647
 C                    -1.32482318    -3.69159738     0.36599014
 H                     4.31160961     0.21646375    -0.16269540
 H                     3.70774186    -0.58983681    -1.62912382
 H                     2.91799805     0.88513831    -1.04574182
 H                    -2.15484766    -4.10265952    -1.61277673
 H                    -2.38615734    -5.37553235    -0.38444067
 H                    -3.33576158    -3.89495464    -0.30094712
 N                    -0.50944582    -2.76693162    -0.19795829
 O                     1.10872837    -1.25120488    -1.60232644
 O                    -1.24916309    -3.99588953     1.54209901
 C                     0.48522491    -2.06481376     0.57229878
 C                     3.42097656    -0.03436372    -0.73577901
 H                     2.74484088    -0.98028201     1.06550875
 C                     1.40370081    -1.36201822    -0.42822290
 N                    -2.45581729     1.14968099    -0.36404406
 C                     0.87412733     1.96360625     0.61768737
 N                     2.53911597    -0.84173845     0.09018862
 H                    -0.56887537    -2.50985265    -1.17401536
 C                    -0.16127415    -1.03848752     1.53919275
 H                     0.25386281     4.86239238    -1.04442105
 H                     1.05207827    -2.78857944     1.16739917
 C                    -0.88770086     0.04797565     0.81330253
 H                    -0.83421264    -1.60423483     2.18598940
 H                     0.61334826    -0.60603028     2.17985280
 C                    -0.35659035     1.32152897     0.41121995
 C                    -1.36541147     1.98662371    -0.32268349
 H                    -2.89233013    -0.79632770     0.40861733
 C                    -2.16182224    -0.00666472     0.31910290
 H                    -1.96104149     3.75945819    -1.41931248
 F                     2.21817654     3.84598114     0.24333461
 C                     0.04287226     3.87496704    -0.65509571
 C                     1.03755027     3.21418194     0.07520335
 H                    -3.33759413     1.36258371    -0.79742655
 C                    -1.17898676     3.26204680    -0.85853948
 H                     1.68067953     1.50883095     1.17872234
