    36
 geometry
 C                    -2.15147522    -4.47719350    -0.59981537
 C                    -1.27558334    -3.69045836     0.35203007
 H                     4.65595181    -0.61143987    -0.25264286
 H                     4.09995288    -1.80476097    -1.44527373
 H                     3.48947208    -0.15438098    -1.51840144
 H                    -1.82680654    -4.40245390    -1.63749401
 H                    -2.12662970    -5.51518302    -0.27532380
 H                    -3.18592034    -4.12950083    -0.52630269
 N                    -0.63404595    -2.61747649    -0.18026845
 O                     1.23142159    -1.44522162    -1.64575728
 O                    -1.16802782    -3.98913502     1.52618494
 C                     0.41830020    -1.95775152     0.55794167
 C                     3.80500723    -0.94200079    -0.84080990
 H                     2.89187969    -1.46383930     1.01920979
 C                     1.48347378    -1.53756452    -0.46009681
 N                    -2.54800137     1.30237745    -0.37951162
 C                     0.68929268     2.38886141     0.65509017
 N                     2.70987536    -1.27785447     0.04978960
 H                    -0.63288007    -2.44051457    -1.17524647
 C                    -0.08649981    -0.78092924     1.42294651
 H                    -0.30772557     5.36311265    -0.65863645
 H                     0.84350244    -2.69784669     1.25011458
 C                    -0.85434748     0.27546628     0.68445207
 H                    -0.72271688    -1.22460404     2.19355150
 H                     0.76532501    -0.32335205     1.93525159
 C                    -0.46532557     1.63047610     0.39815084
 C                    -1.55782529     2.25019569    -0.26137420
 H                    -2.75905054    -0.73582387     0.21834222
 C                    -2.12005290     0.12961613     0.19411721
 H                    -2.37581413     4.04875258    -1.16256417
 F                     1.78244740     4.45679331     0.47522349
 C                    -0.39567722     4.31669776    -0.38702268
 C                     0.68881748     3.70302686     0.25333125
 H                    -3.45259531     1.44892702    -0.79327249
 C                    -1.53527599     3.58763656    -0.65646059
 H                     1.56223663     1.97562252     1.15035049
