    36
 geometry
 C                    -2.05946869    -4.51309226    -0.58993578
 C                    -0.98628513    -3.87587048     0.25683155
 H                     4.77522191    -0.93747925    -0.19119901
 H                     4.11991034    -2.26576986    -1.19081986
 H                     3.68312323    -0.58895082    -1.56058780
 H                    -1.82062510    -4.46131542    -1.65158862
 H                    -2.13725286    -5.55708303    -0.26894796
 H                    -3.01651189    -4.02086416    -0.38643059
 N                    -0.66527466    -2.59053479    -0.05811884
 O                     1.32977201    -1.64114986    -1.57991214
 O                    -0.45457445    -4.45613169     1.18026712
 C                     0.42011161    -1.88775537     0.60466814
 C                     3.90624959    -1.28812234    -0.74933969
 H                     2.92093677    -1.41552502     1.13376392
 C                     1.53337298    -1.63073725    -0.38614541
 N                    -2.62184458     1.40331664    -0.52651526
 C                     0.68710515     2.38760837     0.35353085
 N                     2.75907439    -1.36966707     0.13997545
 H                    -1.05633213    -2.14826406    -0.88941079
 C                    -0.10767970    -0.60960373     1.25644671
 H                    -0.54226465     5.51914575    -0.21428707
 H                     0.81333029    -2.56281212     1.37197393
 C                    -0.86069073     0.34786156     0.37158554
 H                    -0.80769988    -0.89184888     2.05842222
 H                     0.70923191    -0.07200236     1.75656471
 C                    -0.46059790     1.66139081     0.01398212
 C                    -1.61961337     2.32846317    -0.42100888
 H                    -2.84313286    -0.59565523     0.22587590
 C                    -2.16927336     0.22078622    -0.01188465
 H                    -2.58090926     4.21475444    -0.80842182
 F                     1.68070568     4.50437697     0.60426970
 C                    -0.53063810     4.43799872    -0.18670245
 C                     0.61441172     3.76042820     0.25763212
 H                    -3.58460989     1.64999063    -0.63738647
 C                    -1.65601307     3.71268367    -0.54735386
 H                     1.56341391     1.88970658     0.75000995
