    36
 geometry
 C                    -2.06031596    -4.53263869    -0.58175660
 C                    -0.99718635    -3.88990176     0.28794373
 H                     4.74134077    -0.91061276    -0.14944738
 H                     4.13054126    -2.22078396    -1.19035712
 H                     3.70867888    -0.54024421    -1.55458867
 H                    -1.81018277    -4.44839025    -1.63887584
 H                    -2.16085059    -5.58292687    -0.30637427
 H                    -3.01638539    -4.02711173    -0.42203562
 N                    -0.68865998    -2.60212478    -0.06706036
 O                     1.31333857    -1.65466643    -1.63334218
 O                    -0.50155577    -4.44934897     1.24145574
 C                     0.39546302    -1.91016387     0.59021099
 C                     3.89449233    -1.24839057    -0.74713021
 H                     2.84405538    -1.48813677     1.09234953
 C                     1.50752851    -1.62556766    -0.43784134
 N                    -2.64114254     1.41649833    -0.45065633
 C                     0.66334057     2.42892194     0.43469342
 N                     2.71851583    -1.33345581     0.10452058
 H                    -0.92441405    -2.27697394    -0.98849461
 C                    -0.08666196    -0.63758846     1.30504705
 H                    -0.48042986     5.54026260    -0.28113542
 H                     0.77734968    -2.60130162     1.34290432
 C                    -0.90005240     0.34096125     0.49370925
 H                    -0.67618375    -0.97668790     2.16523461
 H                     0.77920770    -0.10469283     1.70724627
 C                    -0.51486544     1.69680672     0.20990181
 C                    -1.64128140     2.35682078    -0.33198293
 H                    -2.86829347    -0.63263271     0.12592606
 C                    -2.19874732     0.22396874     0.07576275
 H                    -2.53299190     4.26375530    -0.92691405
 F                     1.71605485     4.52250037     0.51104346
 C                    -0.51300967     4.45942787    -0.23063415
 C                     0.61854064     3.78586235     0.23862645
 H                    -3.58827170     1.60342522    -0.72480905
 C                    -1.65672520     3.74184978    -0.54773899
 H                     1.58443873     1.97155796     0.76440204
