    36
 geometry
 C                    -2.30278857    -4.35788443    -0.58917487
 C                    -1.31006279    -3.70404903     0.34887419
 H                     4.36797211     0.09958254    -0.15502121
 H                     3.65888598    -0.58910410    -1.63518803
 H                     2.99272413     0.90281639    -0.95110004
 H                    -2.15314457    -4.08260295    -1.63283145
 H                    -2.21848428    -5.43849625    -0.47754715
 H                    -3.30994004    -4.07164400    -0.28104749
 N                    -0.53043270    -2.74085695    -0.20117222
 O                     1.09240133    -1.19986119    -1.58356295
 O                    -1.22864706    -4.01438876     1.52305495
 C                     0.45877617    -2.03941814     0.57729862
 C                     3.44296150    -0.06265203    -0.70535572
 H                     2.75303800    -1.03042837     1.07871336
 C                     1.38883109    -1.33856084    -0.41295552
 N                    -2.49400887     1.20432500    -0.31225463
 C                     0.87713631     1.95496350     0.57535592
 N                     2.53891291    -0.85536916     0.11077550
 H                    -0.58327872    -2.48657589    -1.17809029
 C                    -0.19273897    -1.01736386     1.54479239
 H                     0.27597879     4.85357818    -1.09264145
 H                     1.01741856    -2.76675796     1.17569925
 C                    -0.91607190     0.07582655     0.82616531
 H                    -0.87011741    -1.58808802     2.18241601
 H                     0.57887249    -0.59088276     2.19333408
 C                    -0.37161732     1.33765999     0.40490135
 C                    -1.38631858     2.01959878    -0.30500240
 H                    -2.94556327    -0.73200139     0.47805263
 C                    -2.20341996     0.04381087     0.36544792
 H                    -1.97453330     3.80000895    -1.39364358
 F                     2.25183566     3.80333317     0.14814509
 C                     0.05273163     3.87513686    -0.68821996
 C                     1.05249841     3.19767061     0.01867350
 H                    -3.37652308     1.42412795    -0.73981093
 C                    -1.18748750     3.28805266    -0.85319894
 H                     1.68888303     1.48477076     1.11592173
