    36
 geometry
 C                    -2.11236076    -4.52742342    -0.59496966
 C                    -1.17978225    -3.78695183     0.34230103
 H                     4.68644245    -0.76286766    -0.17458577
 H                     4.13929963    -2.00529130    -1.32410957
 H                     3.62625493    -0.32082416    -1.52228866
 H                    -1.80079508    -4.44284533    -1.63525569
 H                    -2.13281417    -5.57423509    -0.30068247
 H                    -3.12545846    -4.12792137    -0.50029151
 N                    -0.68012880    -2.60718729    -0.14433885
 O                     1.26026972    -1.57999834    -1.66897286
 O                    -0.91911267    -4.19339788     1.46011726
 C                     0.39923780    -1.94330930     0.55028534
 C                     3.85367222    -1.09543397    -0.79125995
 H                     2.83891099    -1.52549825     1.03367138
 C                     1.47807781    -1.59652488    -0.47569915
 N                    -2.58474888     1.37047633    -0.38086338
 C                     0.66784939     2.45050667     0.60340707
 N                     2.69401664    -1.31654844     0.05979329
 H                    -0.73911605    -2.40806802    -1.13296923
 C                    -0.06382615    -0.71266126     1.36255898
 H                    -0.39478901     5.45655096    -0.59336334
 H                     0.80804256    -2.66562447     1.26247598
 C                    -0.85490576     0.31914363     0.60484534
 H                    -0.66329695    -1.10234505     2.18988942
 H                     0.81608416    -0.24144324     1.81304766
 C                    -0.48600093     1.68798996     0.35522843
 C                    -1.59994122     2.32155786    -0.24373295
 H                    -2.77343585    -0.68736888     0.12848156
 C                    -2.13496126     0.17799197     0.13144118
 H                    -2.50178316     4.16078654    -0.95185754
 F                     1.75715454     4.51621178     0.43569093
 C                    -0.45986010     4.40670992    -0.34509489
 C                     0.65451324     3.77070761     0.22644120
 H                    -3.48199652     1.51836279    -0.80566671
 C                    -1.61292416     3.68144749    -0.56147397
 H                     1.55689132     2.04360259     1.06760306
