    36
 geometry
 C                    -2.33679091    -4.32693998    -0.57122570
 C                    -1.31633287    -3.70157568     0.35600051
 H                     4.31907966     0.19136208    -0.15970280
 H                     3.69467416    -0.60212856    -1.62511257
 H                     2.93537950     0.88798213    -1.03798837
 H                    -2.14647134    -4.11677686    -1.62343359
 H                    -2.34020426    -5.40297289    -0.40307938
 H                    -3.32420858    -3.94618185    -0.30278336
 N                    -0.52328973    -2.75298813    -0.20086450
 O                     1.09681821    -1.23015421    -1.59850441
 O                    -1.23120651    -4.01349812     1.52952200
 C                     0.47163545    -2.05386995     0.57212462
 C                     3.42197227    -0.04147136    -0.73025140
 H                     2.73339298    -0.97919594     1.07122095
 C                     1.39063981    -1.34740975    -0.42467072
 N                    -2.46580490     1.16988907    -0.34120277
 C                     0.87764608     1.96325180     0.61035424
 N                     2.52794138    -0.83463455     0.09642808
 H                    -0.57664595    -2.49979464    -1.17805680
 C                    -0.17291996    -1.03306616     1.54539516
 H                     0.27104281     4.85428133    -1.06850677
 H                     1.03894052    -2.78093720     1.16274300
 C                    -0.89580362     0.05963493     0.82545753
 H                    -0.84910759    -1.60143399     2.18661761
 H                     0.60184906    -0.60840176     2.19087003
 C                    -0.35892535     1.32886026     0.41612569
 C                    -1.36865419     1.99868831    -0.31220944
 H                    -2.90774424    -0.77289455     0.43802630
 C                    -2.17357160     0.01240958     0.34026857
 H                    -1.95940578     3.76999068    -1.41309216
 F                     2.23239947     3.83385543     0.21896007
 C                     0.05208663     3.87396606    -0.66677376
 C                     1.04600570     3.21009201     0.06067106
 H                    -3.34058546     1.37601120    -0.79087412
 C                    -1.17617364     3.26965337    -0.85657348
 H                     1.68702199     1.50467455     1.16392363
