    36
 geometry
 C                    -2.29642054    -4.36004636    -0.59800795
 C                    -1.31169180    -3.70111958     0.34467043
 H                     4.38450898     0.06553310    -0.15664069
 H                     3.64458282    -0.58817648    -1.63750354
 H                     3.01723001     0.90793977    -0.92570044
 H                    -2.16336228    -4.06291279    -1.63836018
 H                    -2.18269231    -5.44034223    -0.50780193
 H                    -3.30756622    -4.10599376    -0.27468979
 N                    -0.53284924    -2.73440766    -0.20018969
 O                     1.08959667    -1.19229233    -1.57715571
 O                    -1.23337414    -4.01434957     1.51827066
 C                     0.45654678    -2.03646518     0.58120674
 C                     3.44993849    -0.06993695    -0.69820225
 H                     2.75282660    -1.03559488     1.08338380
 C                     1.38820530    -1.33550821    -0.40747070
 N                    -2.49963876     1.20758732    -0.30405091
 C                     0.87623164     1.95483960     0.56675804
 N                     2.54081914    -0.85859625     0.11586623
 H                    -0.58427830    -2.47568357    -1.17602786
 C                    -0.19448372    -1.01338578     1.54892176
 H                     0.27293298     4.85152281    -1.10434866
 H                     1.01272259    -2.76609894     1.17933323
 C                    -0.91817066     0.07958092     0.83001415
 H                    -0.87247823    -1.58327016     2.18682858
 H                     0.57693804    -0.58734467     2.19763319
 C                    -0.37457805     1.34070592     0.40511081
 C                    -1.39120203     2.02274344    -0.30181879
 H                    -2.94940879    -0.72768840     0.49020044
 C                    -2.20696033     0.04749386     0.37408609
 H                    -1.97999635     3.80361837    -1.39080967
 F                     2.25559964     3.79588745     0.12382505
 C                     0.05018704     3.87444678    -0.69605735
 C                     1.05246648     3.19507394     0.00553985
 H                    -3.38430430     1.42617477    -0.72844039
 C                    -1.19270528     3.29053314    -0.85231556
 H                     1.68950734     1.48380923     1.10374596
