    36
 geometry
 C                    -2.28508302    -4.33467698    -0.53840705
 C                    -1.33141852    -3.62621423     0.40144164
 H                     4.54063653    -0.16825355    -0.26684508
 H                     3.90723831    -1.18145747    -1.59523378
 H                     3.27849691     0.45733483    -1.35290557
 H                    -2.02193717    -4.22687925    -1.59101748
 H                    -2.29825958    -5.39174575    -0.27242382
 H                    -3.29002988    -3.93937444    -0.37686565
 N                    -0.46175217    -2.77188534    -0.19093980
 O                     1.15088086    -1.22851023    -1.60326007
 O                    -1.34908244    -3.81226281     1.60183895
 C                     0.49822872    -2.00817559     0.57096203
 C                     3.65236689    -0.43096638    -0.84028886
 H                     2.91457346    -1.28953609     0.97317930
 C                     1.44999944    -1.36232784    -0.43672263
 N                    -2.52054471     1.18634778    -0.41919625
 C                     0.75432543     2.10493336     0.65622508
 N                     2.63273969    -0.94350263     0.07136694
 H                    -0.48702083    -2.58251940    -1.18416980
 C                    -0.16198176    -0.93057787     1.47777937
 H                     0.01762120     5.07369198    -0.81431413
 H                     1.05087786    -2.69690737     1.21726624
 C                    -0.91133912     0.11407344     0.72492829
 H                    -0.82080590    -1.45950530     2.16246950
 H                     0.62267328    -0.46451018     2.08201166
 C                    -0.43899670     1.42370065     0.37742442
 C                    -1.47123919     2.07299097    -0.33496133
 H                    -2.88122885    -0.79683241     0.30218831
 C                    -2.18031655     0.02186371     0.22609923
 H                    -2.12640121     3.89061918    -1.33160240
 F                     1.98834595     4.09599763     0.47266475
 C                    -0.15373161     4.05256793    -0.49906777
 C                     0.85825051     3.40109542     0.21484592
 H                    -3.41670561     1.37522002    -0.83317957
 C                    -1.33419524     3.38943647    -0.78511929
 H                     1.55949427     1.64502441     1.21363165
