    36
 geometry
 C                    -2.14938004    -4.48541007    -0.59727889
 C                    -1.27697515    -3.69578143     0.35690682
 H                     4.65489271    -0.62794511    -0.24266729
 H                     4.10794829    -1.82679184    -1.43692888
 H                     3.50049210    -0.16340058    -1.51594814
 H                    -1.82091109    -4.40954221    -1.63475539
 H                    -2.12357632    -5.52466082    -0.27572852
 H                    -3.18525889    -4.13819001    -0.52835167
 N                    -0.63887164    -2.61514384    -0.18560816
 O                     1.23399833    -1.45784280    -1.64888828
 O                    -1.15993782    -3.99841122     1.53076816
 C                     0.41453632    -1.95890608     0.55522241
 C                     3.80802246    -0.96072019    -0.83921244
 H                     2.89252722    -1.47155765     1.02281229
 C                     1.48031692    -1.54940133    -0.46194197
 N                    -2.55193539     1.30835876    -0.37380267
 C                     0.68399575     2.40434584     0.66123507
 N                     2.70704200    -1.28868312     0.05097052
 H                    -0.63009575    -2.44015073    -1.18812137
 C                    -0.08307396    -0.77553076     1.41496601
 H                    -0.31473359     5.37366789    -0.66347172
 H                     0.83296524    -2.70436804     1.24359888
 C                    -0.84758341     0.27922802     0.67576087
 H                    -0.71478530    -1.21411691     2.19291095
 H                     0.77512688    -0.32242319     1.91932766
 C                    -0.46866409     1.64301284     0.40406477
 C                    -1.56521899     2.25949765    -0.25105522
 H                    -2.74490165    -0.73629373     0.20824036
 C                    -2.11253266     0.13146666     0.18288967
 H                    -2.39314413     4.06723404    -1.13596949
 F                     1.78269334     4.46784217     0.46077809
 C                    -0.40025419     4.32950811    -0.38962902
 C                     0.68461930     3.71725118     0.24946468
 H                    -3.45396536     1.44735590    -0.79606263
 C                    -1.54604369     3.59983264    -0.64383697
 H                     1.55734549     1.99494665     1.15914445
