    36
 geometry
 C                    -2.32706007    -4.34307605    -0.57290698
 C                    -1.31463166    -3.70221896     0.35341587
 H                     4.32873453     0.17010359    -0.15131968
 H                     3.69331910    -0.60411559    -1.62217331
 H                     2.95200816     0.88863301    -1.02157183
 H                    -2.14310494    -4.12666190    -1.62506799
 H                    -2.30691919    -5.41941258    -0.40739627
 H                    -3.32206257    -3.98462987    -0.30208059
 N                    -0.53170746    -2.74594855    -0.20373844
 O                     1.09640417    -1.22345600    -1.59867442
 O                    -1.22330108    -4.01406046     1.52656105
 C                     0.46543725    -2.04937421     0.56871746
 C                     3.42826803    -0.04848546    -0.72233341
 H                     2.73375443    -0.99280437     1.07233407
 C                     1.38820687    -1.34483847    -0.42493820
 N                    -2.47213952     1.18110460    -0.33400160
 C                     0.87899995     1.96290532     0.60205095
 N                     2.52713120    -0.83810223     0.10000510
 H                    -0.59195177    -2.48970642    -1.17988600
 C                    -0.17722186    -1.02818778     1.54306842
 H                     0.26882244     4.85985136    -1.06898931
 H                     1.02837633    -2.78008870     1.15876008
 C                    -0.90012260     0.06548411     0.82485863
 H                    -0.85235363    -1.59814774     2.18361884
 H                     0.59790374    -0.60318058     2.18803912
 C                    -0.36084179     1.33284474     0.41278392
 C                    -1.37203992     2.00596195    -0.31089321
 H                    -2.91703738    -0.76010887     0.44719880
 C                    -2.18053106     0.02252638     0.34643178
 H                    -1.96053931     3.77999598    -1.41041914
 F                     2.23918647     3.82810767     0.20254661
 C                     0.05272519     3.87734293    -0.66965105
 C                     1.04933711     3.20913955     0.05147166
 H                    -3.35071942     1.39373805    -0.77332203
 C                    -1.17791154     3.27662022    -0.85573790
 H                     1.68826101     1.50052198     1.15304197
