    36
 geometry
 C                    -2.31744951    -4.30127940    -0.62130253
 C                    -1.32815552    -3.66155757     0.32964815
 H                     4.47761837    -0.10411849    -0.16799944
 H                     3.57645127    -0.53313739    -1.64104035
 H                     3.16805019     0.94920102    -0.76187385
 H                    -2.29098197    -3.87483913    -1.62407385
 H                    -2.10039686    -5.36889427    -0.67492572
 H                    -3.31751487    -4.18972640    -0.20088158
 N                    -0.52159521    -2.71530809    -0.20971567
 O                     1.13477408    -1.19728968    -1.57208312
 O                    -1.26350972    -3.98002427     1.50290014
 C                     0.47006681    -2.03158975     0.58120541
 C                     3.50124081    -0.08697810    -0.65013665
 H                     2.73746741    -1.00857152     1.12455821
 C                     1.41467643    -1.33212007    -0.39716199
 N                    -2.51941444     1.18300354    -0.27591370
 C                     0.86668574     1.94934664     0.53692661
 N                     2.56282433    -0.86135604     0.14416215
 H                    -0.56617284    -2.45033759    -1.18417347
 C                    -0.17955070    -1.01586435     1.55701688
 H                     0.23377173     4.81892859    -1.16958449
 H                     1.02040111    -2.76938764     1.17437564
 C                    -0.91774012     0.07176951     0.84591592
 H                    -0.84843663    -1.59280789     2.19789247
 H                     0.59386998    -0.58614957     2.20102091
 C                    -0.38397045     1.32900911     0.39880690
 C                    -1.41276143     1.99979065    -0.30113388
 H                    -2.95247660    -0.74321162     0.54852334
 C                    -2.21395222     0.03228233     0.41168751
 H                    -2.02105795     3.76135281    -1.40956558
 F                     2.23356152     3.78954580     0.05386058
 C                     0.01874396     3.84799344    -0.74321135
 C                     1.03145112     3.18242738    -0.04338089
 H                    -3.41394175     1.39996924    -0.67997571
 C                    -1.22466253     3.25894414    -0.87395500
 H                     1.68676567     1.48926131     1.07339099
