    36
 geometry
 C                    -2.35197964    -4.30638658    -0.56355742
 C                    -1.32297144    -3.69454286     0.36445419
 H                     4.31197825     0.21392910    -0.16389852
 H                     3.70472745    -0.59184175    -1.62983143
 H                     2.91978885     0.88600787    -1.04582772
 H                    -2.15098781    -4.10415712    -1.61521218
 H                    -2.37688710    -5.38135776    -0.39158475
 H                    -3.33417681    -3.90585937    -0.30405332
 N                    -0.51422768    -2.76262612    -0.19708101
 O                     1.10428264    -1.24653023    -1.60041048
 O                    -1.24434795    -4.00215878     1.53933461
 C                     0.48179279    -2.06179570     0.57353066
 C                     3.42040752    -0.03517222    -0.73631516
 H                     2.74226391    -0.97466885     1.06636645
 C                     1.40007991    -1.35831066    -0.42655015
 N                    -2.45734967     1.15401682    -0.35807939
 C                     0.87533482     1.96309809     0.61744108
 N                     2.53738380    -0.84057325     0.09053697
 H                    -0.57066998    -2.50908439    -1.17407072
 C                    -0.16404307    -1.03749476     1.54221118
 H                     0.25755408     4.85991661    -1.05121290
 H                     1.04840427    -2.78681608     1.16703354
 C                    -0.88920898     0.05101254     0.81795413
 H                    -0.83860143    -1.60505924     2.18529828
 H                     0.60939834    -0.60844963     2.18595182
 C                    -0.35669082     1.32342668     0.41341709
 C                    -1.36546637     1.98896585    -0.32002811
 H                    -2.89465735    -0.79108987     0.41639638
 C                    -2.16385202    -0.00213825     0.32503157
 H                    -1.95870706     3.76023220    -1.42068632
 F                     2.22233467     3.84203521     0.23716581
 C                     0.04563213     3.87405321    -0.65777646
 C                     1.04020261     3.21234754     0.07166642
 H                    -3.33686334     1.36458904    -0.79674564
 C                    -1.17717743     3.26288782    -0.85908899
 H                     1.68197911     1.50787155     1.17802344
