    36
 geometry
 C                    -2.33115452    -4.31261827    -0.52391422
 C                    -1.33364742    -3.62997278     0.39449043
 H                     4.50211524    -0.06044070    -0.23932553
 H                     3.86923911    -1.00679091    -1.60989373
 H                     3.20404006     0.59988892    -1.25985253
 H                    -2.10118024    -4.20076594    -1.58305449
 H                    -2.35346301    -5.37217631    -0.26582195
 H                    -3.32325382    -3.90665725    -0.32387915
 N                    -0.44916405    -2.78122417    -0.19970800
 O                     1.15425543    -1.21172779    -1.59639289
 O                    -1.33331712    -3.83258051     1.59292957
 C                     0.51048657    -2.02615331     0.57104762
 C                     3.60892328    -0.30840138    -0.80827437
 H                     2.90103360    -1.20095305     1.00660289
 C                     1.45096109    -1.35198510    -0.42776902
 N                    -2.50860709     1.17599817    -0.42133333
 C                     0.78164642     2.04778728     0.64735828
 N                     2.62269905    -0.89891684     0.08480942
 H                    -0.48949650    -2.56200652    -1.18416816
 C                    -0.16813927    -0.97544610     1.48540138
 H                     0.06777734     5.01560173    -0.85469866
 H                     1.08072741    -2.71294597     1.20970673
 C                    -0.92034264     0.07676330     0.72994709
 H                    -0.82569142    -1.52653265     2.16452078
 H                     0.60303016    -0.49151259     2.09531312
 C                    -0.42684119     1.38288461     0.39047146
 C                    -1.44968827     2.04997569    -0.32033220
 H                    -2.89114416    -0.81612475     0.25754003
 C                    -2.18493230    -0.00111925     0.21307358
 H                    -2.10174894     3.86478825    -1.31049610
 F                     2.06083910     3.98904710     0.38643621
 C                    -0.10676285     3.99667974    -0.52781011
 C                     0.90682798     3.32804384     0.16808240
 H                    -3.39054751     1.37187901    -0.86258974
 C                    -1.30659874     3.35965079    -0.77719817
 H                     1.60579845     1.58634036     1.17858432
