    36
 geometry
 C                    -2.18853822    -4.42487537    -0.58518570
 C                    -1.32584878    -3.63768508     0.37857903
 H                     4.61794429    -0.45862552    -0.28099331
 H                     4.04951734    -1.60150195    -1.52546661
 H                     3.41791948     0.05192007    -1.48291132
 H                    -1.85870999    -4.33841186    -1.61903583
 H                    -2.15819333    -5.46727671    -0.27804108
 H                    -3.22551828    -4.08973354    -0.51899357
 N                    -0.58844670    -2.64598505    -0.17642266
 O                     1.18828663    -1.36205127    -1.63866197
 O                    -1.30230826    -3.87644950     1.56657050
 C                     0.44490716    -1.96419823     0.56822424
 C                     3.75872100    -0.78071503    -0.86634225
 H                     2.90140076    -1.43911100     0.98301457
 C                     1.46316795    -1.47362376    -0.46108972
 N                    -2.52802534     1.25830354    -0.38922959
 C                     0.71124701     2.30293649     0.66972513
 N                     2.68787319    -1.17484030     0.03483186
 H                    -0.56230924    -2.49958468    -1.17402331
 C                    -0.11025636    -0.83244320     1.46772362
 H                    -0.22406716     5.26269156    -0.72569041
 H                     0.93111031    -2.69621682     1.22260340
 C                    -0.87402886     0.21972947     0.72604132
 H                    -0.75495241    -1.32347958     2.19639378
 H                     0.71058949    -0.37589789     2.02583443
 C                    -0.45066674     1.55805228     0.40991670
 C                    -1.51258196     2.17661799    -0.28581735
 H                    -2.81667506    -0.74661565     0.27914664
 C                    -2.14272750     0.09324483     0.22718809
 H                    -2.26519309     3.93487982    -1.28421813
 F                     1.82934321     4.35577451     0.53412340
 C                    -0.31625326     4.22424591    -0.43003671
 C                     0.73706941     3.61333622     0.26063963
 H                    -3.42639229     1.43574102    -0.80686072
 C                    -1.45162013     3.49549523    -0.72591261
 H                     1.56889497     1.88462970     1.18417948
