    36
 geometry
 C                    -2.12363703    -4.51857419    -0.59432499
 C                    -1.20846592    -3.76066125     0.34638511
 H                     4.67959095    -0.72835228    -0.19060792
 H                     4.13341716    -1.96006193    -1.35593106
 H                     3.59430745    -0.28146631    -1.52379566
 H                    -1.80264237    -4.43671615    -1.63108541
 H                    -2.12982504    -5.56754136    -0.29529852
 H                    -3.14222129    -4.13572973    -0.50803252
 N                    -0.67750944    -2.60703272    -0.15649088
 O                     1.25034986    -1.54785422    -1.66251624
 O                    -0.98609532    -4.14203708     1.47740373
 C                     0.40056811    -1.95009138     0.54382311
 C                     3.84355729    -1.06196707    -0.80309167
 H                     2.85643569    -1.51186081     1.03417323
 C                     1.47970959    -1.58912760    -0.46713883
 N                    -2.57443982     1.35349841    -0.37488645
 C                     0.66922142     2.44402015     0.62241119
 N                     2.69888395    -1.31413189     0.06125672
 H                    -0.70549292    -2.41409555    -1.15293210
 C                    -0.06491447    -0.73111654     1.37689379
 H                    -0.37036055     5.44011215    -0.61982317
 H                     0.80785169    -2.67669408     1.24953656
 C                    -0.85235616     0.31172627     0.62881151
 H                    -0.67165080    -1.13196793     2.19269331
 H                     0.81184380    -0.26857914     1.83786485
 C                    -0.48297298     1.68038929     0.37207607
 C                    -1.59239991     2.30847595    -0.24386642
 H                    -2.76737398    -0.70924073     0.14236962
 C                    -2.12936856     0.16542870     0.14862381
 H                    -2.47752118     4.14091275    -0.99906584
 F                     1.76775001     4.50885592     0.43453594
 C                    -0.44443049     4.39057370    -0.35279553
 C                     0.66323143     3.76011110     0.23036685
 H                    -3.47404610     1.49318100    -0.80627633
 C                    -1.59627755     3.66434769    -0.58017506
 H                     1.55196267     2.04154355     1.09871218
