    36
 geometry
 C                    -2.07030035    -4.53689193    -0.58097991
 C                    -1.04008044    -3.88069640     0.31286007
 H                     4.71646584    -0.87754806    -0.13863367
 H                     4.13252093    -2.17268744    -1.20605932
 H                     3.71183645    -0.49054241    -1.54374615
 H                    -1.79047212    -4.44821802    -1.63336795
 H                    -2.16330977    -5.58459208    -0.31217884
 H                    -3.03262490    -4.04523857    -0.42817160
 N                    -0.68802328    -2.61596251    -0.08779236
 O                     1.28444856    -1.66169080    -1.65793686
 O                    -0.60813330    -4.39813575     1.32048062
 C                     0.39634387    -1.92057024     0.55969904
 C                     3.88162788    -1.21268284    -0.74824077
 H                     2.82633946    -1.52734745     1.06245089
 C                     1.48553041    -1.62363773    -0.46126945
 N                    -2.63627631     1.42416323    -0.39568796
 C                     0.65711216     2.44365238     0.50605885
 N                     2.69488957    -1.31829219     0.08442732
 H                    -0.85003778    -2.34086668    -1.05389789
 C                    -0.07918835    -0.65402815     1.30288830
 H                    -0.45476701     5.53160055    -0.37712932
 H                     0.80364819    -2.60903094     1.30652474
 C                    -0.88010829     0.34561868     0.51794790
 H                    -0.67055313    -0.99144809     2.15930335
 H                     0.79384727    -0.15020082     1.72664214
 C                    -0.52144734     1.71842650     0.28317409
 C                    -1.64872308     2.37334038    -0.26424731
 H                    -2.81688303    -0.64539711     0.10764660
 C                    -2.17554251     0.22124620     0.08503179
 H                    -2.52489941     4.22713682    -0.95714919
 F                     1.73116975     4.52653758     0.44722530
 C                    -0.51140276     4.46054209    -0.24010213
 C                     0.61992295     3.79082387     0.24963643
 H                    -3.55684149     1.58353816    -0.77163316
 C                    -1.65653217     3.74514541    -0.52991406
 H                     1.57512272     1.97221100     0.83594345
