    36
 geometry
 C                    -2.30488250    -4.36191404    -0.58291885
 C                    -1.30751880    -3.70786718     0.34954738
 H                     4.35658455     0.12087253    -0.15125632
 H                     3.67052149    -0.59172389    -1.63067154
 H                     2.97987404     0.89883811    -0.96966749
 H                    -2.14625280    -4.10513775    -1.63014387
 H                    -2.23708157    -5.44152451    -0.45300698
 H                    -3.30914409    -4.05590486    -0.28461881
 N                    -0.53056345    -2.74403595    -0.20391263
 O                     1.08994992    -1.19696449    -1.58759115
 O                    -1.22121540    -4.01759156     1.52363572
 C                     0.45858934    -2.04020871     0.57262066
 C                     3.43894146    -0.05849639    -0.70859484
 H                     2.74660781    -1.02256630     1.07661134
 C                     1.38643059    -1.33651570    -0.41708975
 N                    -2.49014085     1.20437209    -0.31722117
 C                     0.87748424     1.95459242     0.58063055
 N                     2.53617831    -0.85280208     0.10722106
 H                    -0.58579814    -2.49093098    -1.18096274
 C                    -0.19347190    -1.02014859     1.54148787
 H                     0.28080209     4.85462465    -1.08763648
 H                     1.02028004    -2.76634098     1.16946961
 C                    -0.91566975     0.07485165     0.82475692
 H                    -0.87037300    -1.59224953     2.17838116
 H                     0.57830939    -0.59553039     2.19058499
 C                    -0.37004114     1.33708198     0.40624251
 C                    -1.38252744     2.01947674    -0.30621300
 H                    -2.94466676    -0.73161664     0.47031266
 C                    -2.20185360     0.04382936     0.36127498
 H                    -1.96806166     3.79802067    -1.39893162
 F                     2.25206560     3.80493561     0.16371748
 C                     0.05645620     3.87620399    -0.68363013
 C                     1.05380080     3.19851984     0.02696835
 H                    -3.37474905     1.42995403    -0.73765762
 C                    -1.18257004     3.28763939    -0.85437324
 H                     1.68838530     1.48453414     1.12243795
